examples/CIGRE_MV/SA/reduced.iidm
<?xml version="1.0" encoding="UTF-8"?>
<iidm:network xmlns:iidm="http://www.powsybl.org/schema/iidm/1_4" xmlns:slt="http://www.powsybl.org/schema/iidm/ext/slack_terminal/1_1" id="CIGRE_MV" caseDate="2022-02-16T12:49:39.424+01:00" forecastDistance="0" sourceFormat="MATPOWER">
    <iidm:substation id="SUB-13">
        <iidm:voltageLevel id="VL-1" nominalV="110.0" topologyKind="BUS_BREAKER">
            <iidm:busBreakerTopology>
                <iidm:bus id="BUS-1" v="113.3"/>
            </iidm:busBreakerTopology>
            <iidm:generator id="GEN-slack" energySource="OTHER" minP="-1.0E9" maxP="1.0E9" voltageRegulatorOn="true" targetP="44.937" targetV="113.3" targetQ="0.0" bus="BUS-1" connectableBus="BUS-1"/>
            <iidm:load id="LOAD-InfBus" loadType="UNDEFINED" p0="0.0" q0="0.0" bus="BUS-1" connectableBus="BUS-1" p="0.0" q="0.0"/>
            <iidm:load id="LOAD-slack" loadType="UNDEFINED" p0="0.1" q0="0.0" bus="BUS-1" connectableBus="BUS-1" p="0.0" q="0.0"/>
        </iidm:voltageLevel>
        <iidm:voltageLevel id="VL-2" nominalV="20.0" topologyKind="BUS_BREAKER">
            <iidm:busBreakerTopology>
                <iidm:bus id="BUS-2"/>
            </iidm:busBreakerTopology>
        </iidm:voltageLevel>
        <iidm:twoWindingsTransformer id="TFO1-2" name="TFO1-2" r="0.0" x="0.001" g="0.0" b="0.0" ratedU1="110.0" ratedU2="20.0" bus1="BUS-1" connectableBus1="BUS-1" voltageLevelId1="VL-1" bus2="BUS-2" connectableBus2="BUS-2" voltageLevelId2="VL-2"/>
    </iidm:substation>
    <iidm:substation id="SUB-14">
        <iidm:voltageLevel id="VL-3" nominalV="20.0" topologyKind="BUS_BREAKER">
            <iidm:busBreakerTopology>
                <iidm:bus id="BUS-3"/>
            </iidm:busBreakerTopology>
            <iidm:load id="LOAD-3" loadType="UNDEFINED" p0="45" q0="5" bus="BUS-3" connectableBus="BUS-3"/>
        </iidm:voltageLevel>
    </iidm:substation>
    <iidm:substation id="SUB-15">
        <iidm:voltageLevel id="VL-4" nominalV="20.0" topologyKind="BUS_BREAKER">
            <iidm:busBreakerTopology>
                <iidm:bus id="BUS-4"/>
            </iidm:busBreakerTopology>
            <iidm:load id="LOAD-4" loadType="UNDEFINED" p0="45" q0="5" bus="BUS-4" connectableBus="BUS-4"/>
        </iidm:voltageLevel>
    </iidm:substation>
    <iidm:line id="LINE-2-3" r="0.1" x="0.2" g1="0.0" b1="0.0" g2="0.0" b2="0.0" bus1="BUS-2" connectableBus1="BUS-2" voltageLevelId1="VL-2" bus2="BUS-3" connectableBus2="BUS-3" voltageLevelId2="VL-3"/>
    <iidm:line id="LINE-3-4" r="0.1" x="0.2" g1="0.0" b1="0.0" g2="0.0" b2="0.0" bus1="BUS-3" connectableBus1="BUS-3" voltageLevelId1="VL-3" bus2="BUS-4" connectableBus2="BUS-4" voltageLevelId2="VL-4"/>
    <iidm:extension id="VL-1">
        <slt:slackTerminal id="LOAD-slack"/>
    </iidm:extension>
</iidm:network>
